*Heading
** Job name: Job-1 Model name: Model-1
** Generated by: Abaqus/CAE 2023
*Preprint, echo=NO, model=NO, history=NO, contact=NO
**
** PARTS
**
*Part, name=Part-1
*Node
      1,           0.,          96.
      2,           0.,          90.
      3,           0.,          86.
      4,           0.,         100.
      5,           0.,          80.
      6,   3.00516677,     74.78582
      7,   4.27562618,   70.9744415
      8,           5.,          65.
      9,           5.,          61.
     10,           5.,          55.
     11,           5.,          51.
     12,           5.,          45.
     13,           5.,          41.
     14,           5.,          35.
     15,   4.27562618,   29.0255566
     16,   3.00516677,   25.2141781
     17,           0.,          20.
     18,           0.,          16.
     19,           0.,          10.
     20,           0.,           6.
** ... 1393 like lines cut
*Element, type=S8R
  1,  119,    1,  222,  199,  493,  494,  495,  496
  2,  218,  247,  288,   56,  497,  498,  499,  500
  3,  217,  248,  289,   57,  501,  502,  503,  504
  4,  355,  195,  217,   57,  505,  506,  504,  507
  5,   52,  249,  216,  188,  508,  509,  510,  511
  6,   52,   51,  195,  249,  512,  513,  514,  508
  7,  416,   35,  165,  256,  515,  516,  517,  518
  8,   81,  418,  419,  423,  519,  520,  521,  522
  9,   80,  420,  419,  418,  523,  524,  520,  525
 10,  427,  196,  131,  132,  526,  527,  528,  529
 11,  132,   10,  227,  427,  530,  531,  532,  529
 12,   10,  133,  439,  227,  533,  534,  535,  531
 13,  133,   11,  228,  439,  536,  537,  538,  534
 14,  448,  468,  451,   88,  539,  540,  541,  542
 15,  170,  240,  438,   38,  543,  544,  545,  546
 16,  240,  170,  169,  450,  543,  547,  548,  549
 17,  193,   37,  168,  440,  550,  551,  552,  553
 18,   88,  450,  193,  448,  554,  555,  556,  542
 19,  197,   36,  167,  428,  557,  558,  559,  560
 20,  435,   82,  427,  227,  561,  562,  532,  563
** ... 410 like lines cut
*End Part
**  
**
** ASSEMBLY
**
*Assembly, name=Assembly
**  
*Instance, name=Part-1-1, part=Part-1
*End Instance
**  
*End Assembly
** 
** MATERIALS
** 
*Material, name=Material-1
*Elastic
210., 0.3
