*Heading
** Job name: Job-1 Model name: Model-1
** Generated by: Abaqus/CAE 2023
*Preprint, echo=NO, model=NO, history=NO, contact=NO
**
** PARTS
**
*Part, name=Part-1
*Node
      1,   1.55139005,  0.223128781
      2,   1.57986069,   0.23114416
      3,   1.62813067,   0.26521343
      4,   1.65730536,  0.298805863
      5,   1.68157971,   0.33611694
      6,   1.70157647,  0.375893652
      7,   1.71759605,  0.417435199
      8,   1.73281002,  0.474799871
      9,   1.73928392,  0.518846929
     10,   1.74083996,   0.56333226
     11,   1.73624885,  0.607587516
     12,    1.7162993,  0.663199842
     13,   1.69759536,  0.686112463
     14,   1.67203462,  0.700791597
     15,   1.64267933,  0.703454375
     16,   1.61420858,  0.695438981
     17,   1.56593859,  0.661369741
     18,   1.53676403,  0.627777278
     19,   1.51248956,  0.590466201
     20,   1.49249279,  0.550689459
** ... 6267 like lines cut
*Element, type=S8R
   1,   28,  839,  837,  519, 2160, 2161, 2162, 2163
   2,   27,  571,  843, 1935, 2164, 2165, 2166, 2167
   3,  571,   26,  848,  843, 2168, 2169, 2170, 2165
   4, 1693, 1743, 1997,  169, 2171, 2172, 2173, 2174
   5, 1841, 1824, 2023,  342, 2175, 2176, 2177, 2178
   6,  405,  404,  436,  437, 2179, 2180, 2181, 2182
   7,   91,   90,  405,  406, 2183, 2184, 2185, 2186
   8,  404,  405,   90,   89, 2179, 2184, 2187, 2188
   9,  404,  435, 1966,  436, 2189, 2190, 2191, 2180
  10, 1976, 1769, 1966, 1768, 2192, 2193, 2194, 2195
  11,  839,   28,  572, 1033, 2160, 2196, 2197, 2198
  12, 1227, 1225,  837,  839, 2199, 2200, 2161, 2201
  13,  849, 1195, 1204,  848, 2202, 2203, 2204, 2205
  14, 1392, 1551, 1229,  179, 2206, 2207, 2208, 2209
  15,   53,  670,  180,  965, 2210, 2211, 2212, 2213
  16, 1047,  955, 1157, 1422, 2214, 2215, 2216, 2217
  17,  948,  950,  668,  667, 2218, 2219, 2220, 2221
  18,  942, 1164, 1160,  944, 2222, 2223, 2224, 2225
  19, 1785, 2075, 1743, 2067, 2226, 2227, 2228, 2229
  20, 1467, 1395, 1438, 1523, 2230, 2231, 2232, 2233
** ... 1947 like lines cut
*End Part
**  
**
** ASSEMBLY
**
*Assembly, name=Assembly
**  
*Instance, name=Part-1-1, part=Part-1
*End Instance
**  
*End Assembly
** 
** MATERIALS
** 
*Material, name=Material-1
*Elastic
210., 0.3
